Circuit: * C:\Users\julie\OneDrive\Julien_Projet\OffGridForAll\20220814_SHS5\SHS_DCDC\Simulation\Autoswitch - DCDC.asc

Direct Newton iteration for .op point succeeded.

Date: Sun Feb 19 14:55:49 2023
Total elapsed time: 0.105 seconds.

tnom = 27
temp = 27
method = modified trap
totiter = 2109
traniter = 2088
tranpoints = 1045
accept = 1045
rejected = 0
matrix size = 25
fillins = 18
solver = Normal
Matrix Compiler1: 2.61 KB object code size  0.3/0.2/[0.1]
Matrix Compiler2: 2.31 KB object code size  0.1/0.2/[0.1]

