Circuit: * C:\Users\julie\OneDrive\Julien_Projet\OffGridForAll\20220814_SHS5\Simulation\Autoswitch - DCDC.asc

Direct Newton iteration for .op point succeeded.

Date: Wed Nov 30 22:04:35 2022
Total elapsed time: 0.101 seconds.

tnom = 27
temp = 27
method = modified trap
totiter = 3039
traniter = 3014
tranpoints = 1367
accept = 1299
rejected = 68
matrix size = 22
fillins = 10
solver = Normal
Matrix Compiler1: 1.87 KB object code size  0.3/0.2/[0.1]
Matrix Compiler2: off  [0.1]/0.2/0.3

