Circuit: * C:\Users\julie\Documents\GitHub\Offgridforall_SHS5\SHS_DCDC\Simulation\Current Sensing Block V1 (bat).asc

Direct Newton iteration for .op point succeeded.

Date: Sat Aug 12 19:09:57 2023
Total elapsed time: 0.064 seconds.

tnom = 27
temp = 27
method = modified trap
totiter = 2104
traniter = 2088
tranpoints = 1045
accept = 1045
rejected = 0
matrix size = 10
fillins = 4
solver = Normal
Matrix Compiler1: 566 bytes object code size  0.1/0.1/[0.0]
Matrix Compiler2: off  [0.1]/0.1/0.1

