Circuit: * C:\Users\julie\Documents\GitHub\Offgridforall_SHS5\SHS_DCDC\Simulation\Current Sensing Block V1.asc

Fatal Error: Unknown subcircuit called in:
   xu1 n003 n001 opamp+ 0 n002 level.3b avol=1meg gbw=10meg slew=10meg ilimit=25m rail=0 vos=0 en=0 enk=0 in=0 ink=0 rin=500meg
