Circuit: * C:\Users\julie\Documents\GitHub\Offgridforall_SHS5\SHS_DCDC\Simulation\PV - Reverse current (BAT) protection.asc

.OP point found by inspection.

Date: Sun Aug 13 14:54:51 2023
Total elapsed time: 0.094 seconds.

tnom = 27
temp = 27
method = modified trap
totiter = 2631
traniter = 2631
tranpoints = 1181
accept = 1149
rejected = 32
matrix size = 26
fillins = 8
solver = Normal
Matrix Compiler1: 2.16 KB object code size  0.9/0.3/[0.1]
Matrix Compiler2: 2.29 KB object code size  0.3/0.3/[0.1]

